Version 4
SHEET 1 1052 680
WIRE -400 -160 -448 -160
WIRE -272 -160 -400 -160
WIRE -160 -160 -272 -160
WIRE -48 -160 -160 -160
WIRE 224 -160 -48 -160
WIRE 288 -160 224 -160
WIRE 432 -160 368 -160
WIRE 480 -160 432 -160
WIRE 608 -160 544 -160
WIRE 688 -160 608 -160
WIRE 784 -160 688 -160
WIRE 880 -160 784 -160
WIRE 928 -160 880 -160
WIRE -400 -96 -400 -160
WIRE -272 -96 -272 -160
WIRE -160 -96 -160 -160
WIRE -48 -96 -48 -160
WIRE 608 32 608 -160
WIRE -400 48 -400 -16
WIRE -272 48 -272 -32
WIRE -272 48 -400 48
WIRE -160 48 -160 -32
WIRE -160 48 -272 48
WIRE 224 48 224 -160
WIRE -272 80 -272 48
WIRE -48 112 -48 -16
WIRE 80 112 -48 112
WIRE 432 112 432 -160
WIRE 432 112 368 112
WIRE 688 160 688 -160
WIRE 784 160 784 -160
WIRE 880 160 880 -160
WIRE 608 192 608 112
WIRE 608 192 368 192
WIRE 608 240 608 192
WIRE 688 256 688 224
WIRE 736 256 688 256
WIRE -64 272 -176 272
WIRE 80 272 -64 272
WIRE -176 320 -176 272
WIRE -64 320 -64 272
WIRE 224 416 224 336
WIRE 608 416 608 320
WIRE 736 416 736 256
WIRE 736 416 608 416
WIRE 784 416 784 224
WIRE 784 416 736 416
WIRE 880 416 880 224
WIRE 880 416 784 416
WIRE -176 448 -176 384
WIRE -176 560 -176 528
WIRE -64 560 -64 384
WIRE -64 560 -176 560
WIRE 608 560 608 416
WIRE -176 576 -176 560
FLAG -176 576 0
FLAG -272 80 0
FLAG 608 560 0
FLAG 224 416 0
FLAG -448 -160 Vin
IOPIN -448 -160 In
FLAG 928 -160 Vout
IOPIN 928 -160 Out
SYMBOL PowerProducts\\LT1371 224 192 R0
SYMATTR InstName U1
SYMBOL Misc\\battery -400 -112 R0
WINDOW 123 0 0 Left 0
WINDOW 39 0 0 Left 0
SYMATTR InstName V1
SYMATTR Value 2.6
SYMBOL cap -192 320 R0
SYMATTR InstName C1
SYMATTR Value 47n
SYMBOL cap -80 320 R0
SYMATTR InstName C2
SYMATTR Value 4.7n
SYMBOL cap -288 -96 R0
SYMATTR InstName C3
SYMATTR Value 22µ
SYMBOL cap -176 -96 R0
SYMATTR InstName C4
SYMATTR Value 0.1µ
SYMBOL cap 672 160 R0
SYMATTR InstName C5
SYMATTR Value 0.1µ
SYMBOL res -64 -112 R0
SYMATTR InstName R1
SYMATTR Value 47k
SYMBOL res -192 432 R0
SYMATTR InstName R2
SYMATTR Value 2k
SYMBOL res 592 16 R0
SYMATTR InstName R3
SYMATTR Value 18.7k
SYMBOL res 592 224 R0
SYMATTR InstName R4
SYMATTR Value 6.19k
SYMBOL ind 272 -144 R270
WINDOW 0 32 56 VTop 2
WINDOW 3 5 56 VBottom 2
SYMATTR InstName L1
SYMATTR Value 6.8µ
SYMBOL schottky 480 -144 R270
WINDOW 0 36 32 VTop 2
WINDOW 3 -4 32 VBottom 2
SYMATTR InstName D1
SYMATTR Value RBR20BGE30A
SYMATTR Description Zener Diode
SYMATTR Type zener
SYMBOL polcap 768 160 R0
SYMATTR InstName C6
SYMATTR Value 150µ
SYMBOL polcap 864 160 R0
SYMATTR InstName C7
SYMATTR Value 150µ
TEXT 920 520 Left 2 !.tran 100m
